Pcp_File_Version=4
*** BLOCK I: ATMOSPHERIC INFORMATION  **********************************
   MaxAL                    (MaxAL = number of atmospheric data-records)
   3652
 DailyVar  SinusVar  lLay  lBCCycles lInterc lDummy  lDummy  lDummy  lDummy  lDummy
       f       f       f       t       f       f       f       f       f       f
 Number of Cycles
       1
 hCritS                 (max. allowed pressure head at the soil surface)
      0
       tAtm        Prec       rSoil       rRoot      hCritA          rB          hB          ht        tTop        tBot        Ampl        cTop        cBot   RootDepth
          1    0.625072    0.791973           0        -100           0           0           0           0           0           0           1           0 
          2    0.625072    0.791973           0        -100           0           0           0           0           0           0           1           0 
          3    0.625072    0.791973           0        -100           0           0           0           0           0           0           1           0 
          4    0.625072    0.791973           0        -100           0           0           0           0           0           0           1           0 
          5    0.625072    0.791973           0        -100           0           0           0           0           0           0           1           0 
          6    0.625072    0.791973           0        -100           0           0           0           0           0           0           1           0 
          7    0.625072    0.791973           0        -100           0           0           0           0           0           0           1           0 
          8    0.625072    0.791973           0        -100           0           0           0           0           0           0           1           0 
          9    0.625072    0.791973           0        -100           0           0           0           0           0           0           1           0 
         10    0.625072    0.791973           0        -100           0           0           0           0           0           0           1           0 
         11    0.625072    0.791973           0        -100           0           0           0           0           0           0           1           0 
         12    0.625072    0.791973           0        -100           0           0           0           0           0           0           1           0 
         13    0.625072    0.791973           0        -100           0           0           0           0           0           0           1           0 
         14    0.625072    0.791973           0        -100           0           0           0           0           0           0           1           0 
         15    0.625072    0.791973           0        -100           0           0           0           0           0           0           1           0 
         16    0.625072    0.791973           0        -100           0           0           0           0           0           0           1           0 
         17    0.625072    0.791973           0        -100           0           0           0           0           0           0           1           0 
         18    0.625072    0.791973           0        -100           0           0           0           0           0           0           1           0 
         19    0.625072    0.791973           0        -100           0           0           0           0           0           0           1           0 
         20    0.625072    0.791973           0        -100           0           0           0           0           0           0           1           0 
         21    0.625072    0.791973           0        -100           0           0           0           0           0           0           1           0 
         22    0.625072    0.791973           0        -100           0           0           0           0           0           0           1           0 
         23    0.625072    0.791973           0        -100           0           0           0           0           0           0           1           0 
         24    0.625072    0.791973           0        -100           0           0           0           0           0           0           1           0 
         25    0.625072    0.791973           0        -100           0           0           0           0           0           0           1           0 
         26    0.625072    0.791973           0        -100           0           0           0           0           0           0           1           0 
         27    0.625072    0.791973           0        -100           0           0           0           0           0           0           1           0 
         28    0.625072    0.791973           0        -100           0           0           0           0           0           0           1           0 
         29    0.625072    0.791973           0        -100           0           0           0           0           0           0           1           0 
         30    0.625072    0.791973           0        -100           0           0           0           0           0           0           1           0 
         31    0.625072    0.791973           0        -100           0           0           0           0           0           0           0           0 
         32    0.417049   0.0364633           0        -100           0           0           0           0           0           0           0           0 
         33    0.417049   0.0364633           0        -100           0           0           0           0           0           0           0           0 
         34    0.417049   0.0364633           0        -100           0           0           0           0           0           0           0           0 
         35    0.417049   0.0364633           0        -100           0           0           0           0           0           0           0           0 
         36    0.417049   0.0364633           0        -100           0           0           0           0           0           0           0           0 
         37    0.417049   0.0364633           0        -100           0           0           0           0           0           0           0           0 
         38    0.417049   0.0364633           0        -100           0           0           0           0           0           0           0           0 
         39    0.417049   0.0364633           0        -100           0           0           0           0           0           0           0           0 
         40    0.417049   0.0364633           0        -100           0           0           0           0           0           0           0           0 
         41    0.417049   0.0364633           0        -100           0           0           0           0           0           0           0           0 
         42    0.417049   0.0364633           0        -100           0           0           0           0           0           0           0           0 
         43    0.417049   0.0364633           0        -100           0           0           0           0           0           0           0           0 
         44    0.417049   0.0364633           0        -100           0           0           0           0           0           0           0           0 
         45    0.417049   0.0364633           0        -100           0           0           0           0           0           0           0           0 
         46    0.417049   0.0364633           0        -100           0           0           0           0           0           0           0           0 
         47    0.417049   0.0364633           0        -100           0           0           0           0           0           0           0           0 
         48    0.417049   0.0364633           0        -100           0           0           0           0           0           0           0           0 
         49    0.417049   0.0364633           0        -100           0           0           0           0           0           0           0           0 
         50    0.417049   0.0364633           0        -100           0           0           0           0           0           0           0           0 
         51    0.417049   0.0364633           0        -100           0           0           0           0           0           0           0           0 
         52    0.417049   0.0364633           0        -100           0           0           0           0           0           0           0           0 
         53    0.417049   0.0364633           0        -100           0           0           0           0           0           0           0           0 
         54    0.417049   0.0364633           0        -100           0           0           0           0           0           0           0           0 
         55    0.417049   0.0364633           0        -100           0           0           0           0           0           0           0           0 
         56    0.417049   0.0364633           0        -100           0           0           0           0           0           0           0           0 
         57    0.417049   0.0364633           0        -100           0           0           0           0           0           0           0           0 
         58    0.417049   0.0364633           0        -100           0           0           0           0           0           0           0           0 
         59    0.417049   0.0364633           0        -100           0           0           0           0           0           0           0           0 
         60     12.4397   0.0847517           0        -100           0           0           0           0           0           0           0           0 
         61     12.4397   0.0847517           0        -100           0           0           0           0           0           0           0           0 
         62     12.4397   0.0847517           0        -100           0           0           0           0           0           0           0           0 
         63     12.4397   0.0847517           0        -100           0           0           0           0           0           0           0           0 
         64     12.4397   0.0847517           0        -100           0           0           0           0           0           0           0           0 
         65     12.4397   0.0847517           0        -100           0           0           0           0           0           0           0           0 
         66     12.4397   0.0847517           0        -100           0           0           0           0           0           0           0           0 
         67     12.4397   0.0847517           0        -100           0           0           0           0           0           0           0           0 
         68     12.4397   0.0847517           0        -100           0           0           0           0           0           0           0           0 
         69     12.4397   0.0847517           0        -100           0           0           0           0           0           0           0           0 
         70     12.4397   0.0847517           0        -100           0           0           0           0           0           0           0           0 
         71     12.4397   0.0847517           0        -100           0           0           0           0           0           0           0           0 
         72     12.4397   0.0847517           0        -100           0           0           0           0           0           0           0           0 
         73     12.4397   0.0847517           0        -100           0           0           0           0           0           0           0           0 
         74     12.4397   0.0847517           0        -100           0           0           0           0           0           0           0           0 
         75     12.4397   0.0847517           0        -100           0           0           0           0           0           0           0           0 
         76     12.4397   0.0847517           0        -100           0           0           0           0           0           0           0           0 
         77     12.4397   0.0847517           0        -100           0           0           0           0           0           0           0           0 
         78     12.4397   0.0847517           0        -100           0           0           0           0           0           0           0           0 
         79     12.4397   0.0847517           0        -100           0           0           0           0           0           0           0           0 
         80     12.4397   0.0847517           0        -100           0           0           0           0           0           0           0           0 
         81     12.4397   0.0847517           0        -100           0           0           0           0           0           0           0           0 
         82     12.4397   0.0847517           0        -100           0           0           0           0           0           0           0           0 
         83     12.4397   0.0847517           0        -100           0           0           0           0           0           0           0           0 
         84     12.4397   0.0847517           0        -100           0           0           0           0           0           0           0           0 
         85     12.4397   0.0847517           0        -100           0           0           0           0           0           0           0           0 
         86     12.4397   0.0847517           0        -100           0           0           0           0           0           0           0           0 
         87     12.4397   0.0847517           0        -100           0           0           0           0           0           0           0           0 
         88     12.4397   0.0847517           0        -100           0           0           0           0           0           0           0           0 
         89     12.4397   0.0847517           0        -100           0           0           0           0           0           0           0           0 
         90     12.4397   0.0847517           0        -100           0           0           0           0           0           0           0           0 
         91     9.78209  0.00384854           0        -100           0           0           0           0           0           0           0           0 
         92     9.78209  0.00384854           0        -100           0           0           0           0           0           0           0           0 
         93     9.78209  0.00384854           0        -100           0           0           0           0           0           0           0           0 
         94     9.78209  0.00384854           0        -100           0           0           0           0           0           0           0           0 
         95     9.78209  0.00384854           0        -100           0           0           0           0           0           0           0           0 
         96     9.78209  0.00384854           0        -100           0           0           0           0           0           0           0           0 
         97     9.78209  0.00384854           0        -100           0           0           0           0           0           0           0           0 
         98     9.78209  0.00384854           0        -100           0           0           0           0           0           0           0           0 
         99     9.78209  0.00384854           0        -100           0           0           0           0           0           0           0           0 
        100     9.78209  0.00384854           0        -100           0           0           0           0           0           0           0           0 
        101     9.78209  0.00384854           0        -100           0           0           0           0           0           0           0           0 
        102     9.78209  0.00384854           0        -100           0           0           0           0           0           0           0           0 
        103     9.78209  0.00384854           0        -100           0           0           0           0           0           0           0           0 
        104     9.78209  0.00384854           0        -100           0           0           0           0           0           0           0           0 
        105     9.78209  0.00384854           0        -100           0           0           0           0           0           0           0           0 
        106     9.78209  0.00384854           0        -100           0           0           0           0           0           0           0           0 
        107     9.78209  0.00384854           0        -100           0           0           0           0           0           0           0           0 
        108     9.78209  0.00384854           0        -100           0           0           0           0           0           0           0           0 
        109     9.78209  0.00384854           0        -100           0           0           0           0           0           0           0           0 
        110     9.78209  0.00384854           0        -100           0           0           0           0           0           0           0           0 
        111     9.78209  0.00384854           0        -100           0           0           0           0           0           0           0           0 
        112     9.78209  0.00384854           0        -100           0           0           0           0           0           0           0           0 
        113     9.78209  0.00384854           0        -100           0           0           0           0           0           0           0           0 
        114     9.78209  0.00384854           0        -100           0           0           0           0           0           0           0           0 
        115     9.78209  0.00384854           0        -100           0           0           0           0           0           0           0           0 
        116     9.78209  0.00384854           0        -100           0           0           0           0           0           0           0           0 
        117     9.78209  0.00384854           0        -100           0           0           0           0           0           0           0           0 
        118     9.78209  0.00384854           0        -100           0           0           0           0           0           0           0           0 
        119     9.78209  0.00384854           0        -100           0           0           0           0           0           0           0           0 
        120     9.78209  0.00384854           0        -100           0           0           0           0           0           0           0           0 
        121     19.2294  0.00541523           0        -100           0           0           0           0           0           0           0           0 
        122     19.2294  0.00541523           0        -100           0           0           0           0           0           0           0           0 
        123     19.2294  0.00541523           0        -100           0           0           0           0           0           0           0           0 
        124     19.2294  0.00541523           0        -100           0           0           0           0           0           0           0           0 
        125     19.2294  0.00541523           0        -100           0           0           0           0           0           0           0           0 
        126     19.2294  0.00541523           0        -100           0           0           0           0           0           0           0           0 
        127     19.2294  0.00541523           0        -100           0           0           0           0           0           0           0           0 
        128     19.2294  0.00541523           0        -100           0           0           0           0           0           0           0           0 
        129     19.2294  0.00541523           0        -100           0           0           0           0           0           0           0           0 
        130     19.2294  0.00541523           0        -100           0           0           0           0           0           0           0           0 
        131     19.2294  0.00541523           0        -100           0           0           0           0           0           0           0           0 
        132     19.2294  0.00541523           0        -100           0           0           0           0           0           0           0           0 
        133     19.2294  0.00541523           0        -100           0           0           0           0           0           0           0           0 
        134     19.2294  0.00541523           0        -100           0           0           0           0           0           0           0           0 
        135     19.2294  0.00541523           0        -100           0           0           0           0           0           0           0           0 
        136     19.2294  0.00541523           0        -100           0           0           0           0           0           0           0           0 
        137     19.2294  0.00541523           0        -100           0           0           0           0           0           0           0           0 
        138     19.2294  0.00541523           0        -100           0           0           0           0           0           0           0           0 
        139     19.2294  0.00541523           0        -100           0           0           0           0           0           0           0           0 
        140     19.2294  0.00541523           0        -100           0           0           0           0           0           0           0           0 
        141     19.2294  0.00541523           0        -100           0           0           0           0           0           0           0           0 
        142     19.2294  0.00541523           0        -100           0           0           0           0           0           0           0           0 
        143     19.2294  0.00541523           0        -100           0           0           0           0           0           0           0           0 
        144     19.2294  0.00541523           0        -100           0           0           0           0           0           0           0           0 
        145     19.2294  0.00541523           0        -100           0           0           0           0           0           0           0           0 
        146     19.2294  0.00541523           0        -100           0           0           0           0           0           0           0           0 
        147     19.2294  0.00541523           0        -100           0           0           0           0           0           0           0           0 
        148     19.2294  0.00541523           0        -100           0           0           0           0           0           0           0           0 
        149     19.2294  0.00541523           0        -100           0           0           0           0           0           0           0           0 
        150     19.2294  0.00541523           0        -100           0           0           0           0           0           0           0           0 
        151     19.2294  0.00541523           0        -100           0           0           0           0           0           0           0           0 
        152     60.0799  0.00576808           0        -100           0           0           0           0           0           0           0           0 
        153     60.0799  0.00576808           0        -100           0           0           0           0           0           0           0           0 
        154     60.0799  0.00576808           0        -100           0           0           0           0           0           0           0           0 
        155     60.0799  0.00576808           0        -100           0           0           0           0           0           0           0           0 
        156     60.0799  0.00576808           0        -100           0           0           0           0           0           0           0           0 
        157     60.0799  0.00576808           0        -100           0           0           0           0           0           0           0           0 
        158     60.0799  0.00576808           0        -100           0           0           0           0           0           0           0           0 
        159     60.0799  0.00576808           0        -100           0           0           0           0           0           0           0           0 
        160     60.0799  0.00576808           0        -100           0           0           0           0           0           0           0           0 
        161     60.0799  0.00576808           0        -100           0           0           0           0           0           0           0           0 
        162     60.0799  0.00576808           0        -100           0           0           0           0           0           0           0           0 
        163     60.0799  0.00576808           0        -100           0           0           0           0           0           0           0           0 
        164     60.0799  0.00576808           0        -100           0           0           0           0           0           0           0           0 
        165     60.0799  0.00576808           0        -100           0           0           0           0           0           0           0           0 
        166     60.0799  0.00576808           0        -100           0           0           0           0           0           0           0           0 
        167     60.0799  0.00576808           0        -100           0           0           0           0           0           0           0           0 
        168     60.0799  0.00576808           0        -100           0           0           0           0           0           0           0           0 
        169     60.0799  0.00576808           0        -100           0           0           0           0           0           0           0           0 
        170     60.0799  0.00576808           0        -100           0           0           0           0           0           0           0           0 
        171     60.0799  0.00576808           0        -100           0           0           0           0           0           0           0           0 
        172     60.0799  0.00576808           0        -100           0           0           0           0           0           0           0           0 
        173     60.0799  0.00576808           0        -100           0           0           0           0           0           0           0           0 
        174     60.0799  0.00576808           0        -100           0           0           0           0           0           0           0           0 
        175     60.0799  0.00576808           0        -100           0           0           0           0           0           0           0           0 
        176     60.0799  0.00576808           0        -100           0           0           0           0           0           0           0           0 
        177     60.0799  0.00576808           0        -100           0           0           0           0           0           0           0           0 
        178     60.0799  0.00576808           0        -100           0           0           0           0           0           0           0           0 
        179     60.0799  0.00576808           0        -100           0           0           0           0           0           0           0           0 
        180     60.0799  0.00576808           0        -100           0           0           0           0           0           0           0           0 
        181     60.0799  0.00576808           0        -100           0           0           0           0           0           0           0           0 
        182     162.104  0.00628569           0        -100           0           0           0           0           0           0           0           0 
        183     162.104  0.00628569           0        -100           0           0           0           0           0           0           0           0 
        184     162.104  0.00628569           0        -100           0           0           0           0           0           0           0           0 
        185     162.104  0.00628569           0        -100           0           0           0           0           0           0           0           0 